Version 4
SHEET 1 1304 1168
WIRE -304 -48 -656 -48
WIRE 0 -48 -304 -48
WIRE 320 -48 0 -48
WIRE 608 -48 416 -48
WIRE 656 -48 608 -48
WIRE 752 -48 656 -48
WIRE -656 -32 -656 -48
WIRE -304 -32 -304 -48
WIRE 656 -32 656 -48
WIRE 752 -32 752 -48
WIRE 0 48 0 -48
WIRE 352 48 0 48
WIRE -656 64 -656 48
WIRE 752 64 752 48
WIRE 0 112 0 48
WIRE 16 112 0 112
WIRE 352 112 352 48
WIRE 352 112 272 112
WIRE 16 192 0 192
WIRE 400 192 400 0
WIRE 400 192 272 192
WIRE 16 272 0 272
WIRE 608 272 608 -48
WIRE 608 272 272 272
WIRE 432 352 272 352
WIRE -1696 368 -2048 368
WIRE -1488 368 -1696 368
WIRE -1088 368 -1488 368
WIRE -1072 368 -1088 368
WIRE -784 368 -976 368
WIRE -736 368 -784 368
WIRE -320 368 -736 368
WIRE -2048 384 -2048 368
WIRE -1696 384 -1696 368
WIRE -736 384 -736 368
WIRE 304 432 272 432
WIRE 432 448 432 352
WIRE -2048 480 -2048 464
WIRE -320 496 -320 368
WIRE 304 496 304 432
WIRE 304 496 -320 496
WIRE 352 496 304 496
WIRE 608 496 608 272
WIRE 608 496 448 496
WIRE -1488 528 -1488 368
WIRE -1376 528 -1488 528
WIRE -1088 528 -1088 368
WIRE -1088 528 -1120 528
WIRE -1376 608 -1392 608
WIRE -992 608 -992 416
WIRE -992 608 -1120 608
WIRE -1376 688 -1392 688
WIRE -784 688 -784 368
WIRE -784 688 -1120 688
WIRE -1584 768 -1888 768
WIRE -960 768 -1120 768
WIRE -1888 784 -1888 768
WIRE -1088 848 -1120 848
WIRE -960 864 -960 768
WIRE -1888 880 -1888 864
WIRE -1584 912 -1584 768
WIRE -1088 912 -1088 848
WIRE -1088 912 -1584 912
WIRE -1040 912 -1088 912
WIRE -784 912 -784 688
WIRE -784 912 -944 912
FLAG -656 64 0
FLAG 0 272 0
FLAG 752 64 0
FLAG 0 192 0
FLAG 752 -48 OUT
FLAG -656 -48 IN
FLAG -2048 480 0
FLAG -1888 880 0
FLAG -1392 688 0
FLAG -1392 608 0
SYMBOL voltage -656 -48 R0
WINDOW 123 0 0 Left 2
WINDOW 39 0 0 Left 2
WINDOW 3 24 44 Left 2
SYMATTR Value 11.1
SYMATTR InstName V1
SYMBOL pmos 320 0 R270
WINDOW 0 56 53 VTop 2
WINDOW 3 -20 41 VBottom 2
SYMATTR InstName Q1
SYMATTR Value IRF7207
SYMBOL pmos 352 448 M90
WINDOW 0 3 50 VBottom 2
WINDOW 3 53 47 VTop 2
SYMATTR InstName Q3
SYMATTR Value IRF7207
SYMBOL res 736 -48 R0
SYMATTR InstName Rload
SYMATTR Value 100
SYMBOL SpecialFunctions\\LTC4416 144 272 R0
SYMATTR InstName U1
SYMBOL voltage -2048 368 R0
WINDOW 123 0 0 Left 2
WINDOW 39 0 0 Left 2
SYMATTR Value PWL(0 17 1 0 2 17 3 0)
SYMATTR InstName V3
SYMBOL pmos -1072 416 R270
WINDOW 0 56 53 VTop 2
WINDOW 3 -20 41 VBottom 2
SYMATTR InstName Q2
SYMATTR Value IRF7207
SYMBOL pmos -1040 864 M90
WINDOW 0 3 50 VBottom 2
WINDOW 3 53 47 VTop 2
SYMATTR InstName Q4
SYMATTR Value IRF7207
SYMBOL SpecialFunctions\\LTC4416 -1248 688 R0
SYMATTR InstName U2
SYMBOL voltage -1888 768 R0
WINDOW 123 0 0 Left 0
WINDOW 39 0 0 Left 0
SYMATTR InstName V2
SYMATTR Value PWL(0 0 1 24 2 24 3 0)
TEXT 648 472 Left 2 !.tran 3.2 startup
TEXT -440 216 Bottom 2 ;Primary Supply
TEXT -128 472 Bottom 2 ;Backup Supply
TEXT 120 -96 Bottom 2 ;Power mux 2 testbench\nLTC4416 - 36V, Low Loss Dual PowerPath Controllers for Large PFETs\nAutomatic PowerPath Switchover\nPrimary Supply: 17V (Fail), 15V (replace), 17V (restore), 15V (replace),
TEXT -1936 360 Bottom 2 ;Primary Supply
TEXT -1776 760 Bottom 2 ;PoE (typ 24V)
TEXT -1272 320 Bottom 2 ;Power mux 2 testbench\nLTC4416 - 36V, Low Loss Dual PowerPath Controllers for Large PFETs\nAutomatic PowerPath Switchover\nPrimary Supply: 17V (Fail), 15V (replace), 17V (restore), 15V (replace),
